/*--------------------------------*- C++ -*----------------------------------*\
| =========                 |                                                 |
| \\      /  F ield         | OpenFOAM: The Open Source CFD Toolbox           |
|  \\    /   O peration     | Version:  2412                                  |
|   \\  /    A nd           | Website:  www.openfoam.com                      |
|    \\/     M anipulation  |                                                 |
\*---------------------------------------------------------------------------*/
FoamFile
{
    version     2.0;
    format      ascii;
    arch        "LSB;label=32;scalar=64";
    class       volScalarField;
    location    "0/air";
    object      T;
}
// * * * * * * * * * * * * * * * * * * * * * * * * * * * * * * * * * * * * * //

dimensions      [ 0 0 0 1 0 0 0 ];

internalField   uniform 293.15;

boundaryField
{
    XMin
    {
        type            zeroGradient;
        value           uniform 293.15;
    }
    YMin
    {
        type            zeroGradient;
        value           uniform 293.15;
    }
    ZMax
    {
        type            zeroGradient;
        value           uniform 293.15;
    }
    YMax
    {
        type            fixedValue;
        value           uniform 293.15;
    }
    ZMin
    {
        type            zeroGradient;
        value           uniform 293.15;
    }
    XMax
    {
        type            zeroGradient;
        value           uniform 293.15;
    }
    air_to_heatsink
    {
        type            compressible::turbulentTemperatureRadCoupledMixed;
        value           uniform 293.15;
        Tnbr            T;
        kappaMethod     fluidThermo;
    }
}


// ************************************************************************* //
