/*--------------------------------*- C++ -*----------------------------------*\
| =========                 |                                                 |
| \\      /  F ield         | OpenFOAM: The Open Source CFD Toolbox           |
|  \\    /   O peration     | Version:  2412                                  |
|   \\  /    A nd           | Website:  www.openfoam.com                      |
|    \\/     M anipulation  |                                                 |
\*---------------------------------------------------------------------------*/
FoamFile
{
    version     2.0;
    format      ascii;
    arch        "LSB;label=32;scalar=64";
    class       volVectorField;
    location    "0/air";
    object      U;
}
// * * * * * * * * * * * * * * * * * * * * * * * * * * * * * * * * * * * * * //

dimensions      [ 0 1 -1 0 0 0 0 ];

internalField   uniform ( 0 -0.5 0 );

boundaryField
{
    XMin
    {
        type            noSlip;
    }
    YMin
    {
        type            pressureInletOutletVelocity;
        value           $internalField;
    }
    ZMax
    {
        type            noSlip;
    }
    YMax
    {
        type            fixedValue;
        value           $internalField;
    }
    ZMin
    {
        type            noSlip;
    }
    XMax
    {
        type            noSlip;

    }
    air_to_heatsink
    {
        type            fixedValue;
        value           uniform ( 0 0 0 );
    }
}


// ************************************************************************* //
