/*--------------------------------*- C++ -*----------------------------------*\
| =========                 |                                                 |
| \\      /  F ield         | OpenFOAM: The Open Source CFD Toolbox           |
|  \\    /   O peration     | Version:  2506                                  |
|   \\  /    A nd           | Website:  www.openfoam.com                      |
|    \\/     M anipulation  |                                                 |
\*---------------------------------------------------------------------------*/
FoamFile
{
    version     2.0;
    format      ascii;
    arch        "LSB;label=32;scalar=64";
    class       polyBoundaryMesh;
    location    "constant/polyMesh";
    object      boundary;
}
// * * * * * * * * * * * * * * * * * * * * * * * * * * * * * * * * * * * * * //

11
(
    f1_minX
    {
        type            wall;
        inGroups        1(wall);
        nFaces          60;
        startFace       7080;
    }
    f1_minY
    {
        type            wall;
        inGroups        1(wall);
        nFaces          20;
        startFace       7140;
    }
    s1_minY
    {
        type            wall;
        inGroups        1(wall);
        nFaces          10;
        startFace       7160;
    }
    f2_minY
    {
        type            wall;
        inGroups        1(wall);
        nFaces          20;
        startFace       7170;
    }
    s2_minY
    {
        type            wall;
        inGroups        1(wall);
        nFaces          10;
        startFace       7190;
    }
    s2_maxY
    {
        type            wall;
        inGroups        1(wall);
        nFaces          10;
        startFace       7200;
    }
    s2_maxX
    {
        type            wall;
        inGroups        1(wall);
        nFaces          60;
        startFace       7210;
    }
    f2_maxY
    {
        type            wall;
        inGroups        1(wall);
        nFaces          20;
        startFace       7270;
    }
    s1_maxY
    {
        type            wall;
        inGroups        1(wall);
        nFaces          10;
        startFace       7290;
    }
    f1_maxY
    {
        type            wall;
        inGroups        1(wall);
        nFaces          20;
        startFace       7300;
    }
    defaultFaces
    {
        type            empty;
        inGroups        1(empty);
        nFaces          7200;
        startFace       7320;
    }
)

// ************************************************************************* //
