/*--------------------------------*- C++ -*----------------------------------*\
| =========                 |                                                 |
| \\      /  F ield         | OpenFOAM: The Open Source CFD Toolbox           |
|  \\    /   O peration     | Version:  v2512                                 |
|   \\  /    A nd           | Website:  www.openfoam.com                      |
|    \\/     M anipulation  |                                                 |
\*---------------------------------------------------------------------------*/
FoamFile
{
    version     2.0;
    format      ascii;
    class       dictionary;
    object      blockMeshDict;
}
// * * * * * * * * * * * * * * * * * * * * * * * * * * * * * * * * * * * * * //

scale 0.001;

vertices
(
    ( -8  -19   1) //0
    ( 50  -19   1) //1
    ( 50   79   1) //2
    ( -8   79   1) //3
    ( -8  -19  24) //4
    ( 50  -19  24) //5
    ( 50   79  24) //6
    ( -8   79 24) //7
);
 
blocks
(
    hex (0 1 2 3 4 5 6 7) (15 20 5) simpleGrading (1 1 1)
);
 
edges
(
);
 
boundary
(
    XMin
    {
        type patch;
        faces
        (
            (0 4 7 3)
        );
    }
    XMax
    {
        type patch;
        faces
        (
            (1 2 6 5)
        );
    }
    YMin
    {
        type patch;
        faces
        (
            (0 1 5 4)
        );
    }
    YMax
    {
        type patch;
        faces
        (
            (3 7 6 2)
        );
    }
    ZMin
    {
        type wall;
        faces
        (
            (0 3 2 1)
        );
    }
    ZMax
    {
        type patch;
        faces
        (
            (4 5 6 7)
        );
    }
);

mergePatchPairs
(
);


// ************************************************************************* //
