/*--------------------------------*- C++ -*----------------------------------*\
| =========                 |                                                 |
| \\      /  F ield         | OpenFOAM: The Open Source CFD Toolbox           |
|  \\    /   O peration     | Version:  v2512                                 |
|   \\  /    A nd           | Website:  www.openfoam.com                      |
|    \\/     M anipulation  |                                                 |
\*---------------------------------------------------------------------------*/
FoamFile
{
    version     2.0;
    format      ascii;
    class       dictionary;
    object      controlDict;
}
// * * * * * * * * * * * * * * * * * * * * * * * * * * * * * * * * * * * * * //

application     chtMultiRegionFoam;

startFrom       latestTime;

startTime       0.001;

stopAt          endTime;

endTime         60;

deltaT          0.001;

writeControl    adjustable;

writeInterval   2;

purgeWrite      0;

writeFormat     ascii;

writePrecision  7;

writeCompression off;

timeFormat      general;

timePrecision   6;

runTimeModifiable true;

maxCo           1.0;

maxDi           1.0;

adjustTimeStep  yes;

functions
{
    wallHeatFlux_air
    {
        type            wallHeatFlux;
        libs            ("libfieldFunctionObjects.so");
        region          air;
        patches         (air_to_heatSink);
        writeControl    writeTime;
    }

    wallHeatFlux_heatSink
    {
        $wallHeatFlux_air
        region          heatSink;
        patches         (heatSink_to_air heatSink_to_heatSource);
    }

    wallHeatFlux_heatSource
    {
        $wallHeatFlux_air
        region          heatSource;
        patches         (heatSource_to_heatSink);
    }

    qInt_air_to_heatSink
    {
        type            surfaceFieldValue;
        libs            ("libfieldFunctionObjects.so");
        region          air;
        enabled         true;
        log             true;
        writeControl    timeStep;
        writeInterval   1;
        writeFields     false;
        regionType      patch;
        name            air_to_heatSink;
        operation       areaIntegrate;
        fields          (wallHeatFlux);
    }

    qInt_heatSink_to_air
    {
        $qInt_air_to_heatSink
        region          heatSink;
        name            heatSink_to_air;
    }

    qInt_heatSource_to_heatSink
    {
        $qInt_air_to_heatSink
        region          heatSource;
        name            heatSource_to_heatSink;
    }

    qInt_heatSink_to_heatSource
    {
        $qInt_air_to_heatSink
        region          heatSink;
        name            heatSink_to_heatSource;
    }

    Tavg_air_to_heatSink
    {
        $qInt_air_to_heatSink
        operation       areaAverage;
        fields          (T);
    }

    Tavg_heatSink_to_air
    {
        $Tavg_air_to_heatSink
        region          heatSink;
        name            heatSink_to_air;
    }

    Tavg_heatSource_to_heatSink
    {
        $Tavg_air_to_heatSink
        region          heatSource;
        name            heatSource_to_heatSink;
    }

    Tavg_heatSink_to_heatSource
    {
        $Tavg_air_to_heatSink
        region          heatSink;
        name            heatSink_to_heatSource;
    }
}
// ************************************************************************* //
