/*--------------------------------*- C++ -*----------------------------------*\
| =========                 |                                                 |
| \\      /  F ield         | OpenFOAM: The Open Source CFD Toolbox           |
|  \\    /   O peration     | Version:  2512                                  |
|   \\  /    A nd           | Website:  www.openfoam.com                      |
|    \\/     M anipulation  |                                                 |
\*---------------------------------------------------------------------------*/
FoamFile
{
    version     2.0;
    format      ascii;
    arch        "LSB;label=32;scalar=64";
    class       featureEdgeMesh;
    location    "constant/triSurface";
    object      heatSink_m.eMesh;
}
// * * * * * * * * * * * * * * * * * * * * * * * * * * * * * * * * * * * * * //


// points:

76
(
(0 0 0.004)
(0 0.04 0.004)
(0.042 0 0.004)
(0 0 0.023)
(0 0.04 0.023)
(0.042 0.04 0.004)
(0.002 0 0.023)
(0.007 0 0.023)
(0.005 0 0.023)
(0.012 0 0.023)
(0.01 0 0.023)
(0.017 0 0.023)
(0.015 0 0.023)
(0.022 0 0.023)
(0.02 0 0.023)
(0.027 0 0.023)
(0.025 0 0.023)
(0.032 0 0.023)
(0.03 0 0.023)
(0.037 0 0.023)
(0.035 0 0.023)
(0.042 0 0.023)
(0.04 0 0.023)
(0.002 0.04 0.023)
(0.007 0.04 0.023)
(0.005 0.04 0.023)
(0.012 0.04 0.023)
(0.01 0.04 0.023)
(0.017 0.04 0.023)
(0.015 0.04 0.023)
(0.022 0.04 0.023)
(0.02 0.04 0.023)
(0.027 0.04 0.023)
(0.025 0.04 0.023)
(0.032 0.04 0.023)
(0.03 0.04 0.023)
(0.037 0.04 0.023)
(0.035 0.04 0.023)
(0.042 0.04 0.023)
(0.04 0.04 0.023)
(0.002 0 0.006)
(0.005 0 0.006)
(0.007 0 0.006)
(0.01 0 0.006)
(0.03 0 0.006)
(0.032 0 0.006)
(0.035 0 0.006)
(0.037 0 0.006)
(0.04 0 0.006)
(0.012 0 0.006)
(0.015 0 0.006)
(0.017 0 0.006)
(0.02 0 0.006)
(0.022 0 0.006)
(0.025 0 0.006)
(0.027 0 0.006)
(0.002 0.04 0.006)
(0.005 0.04 0.006)
(0.007 0.04 0.006)
(0.01 0.04 0.006)
(0.03 0.04 0.006)
(0.032 0.04 0.006)
(0.035 0.04 0.006)
(0.037 0.04 0.006)
(0.04 0.04 0.006)
(0.012 0.04 0.006)
(0.015 0.04 0.006)
(0.017 0.04 0.006)
(0.02 0.04 0.006)
(0.022 0.04 0.006)
(0.025 0.04 0.006)
(0.027 0.04 0.006)
(0 0 0.006)
(0 0.04 0.006)
(0.042 0 0.006)
(0.042 0.04 0.006)
)


// edges:

112
(
(0 72)
(1 0)
(73 1)
(41 40)
(43 42)
(46 45)
(48 47)
(2 74)
(0 2)
(50 49)
(52 51)
(54 53)
(44 55)
(72 3)
(3 4)
(4 73)
(56 57)
(58 59)
(61 62)
(63 64)
(75 5)
(5 1)
(65 66)
(67 68)
(69 70)
(71 60)
(5 2)
(40 6)
(6 3)
(42 7)
(8 41)
(7 8)
(49 9)
(10 43)
(9 10)
(51 11)
(12 50)
(11 12)
(53 13)
(14 52)
(13 14)
(55 15)
(16 54)
(15 16)
(45 17)
(18 44)
(17 18)
(47 19)
(20 46)
(19 20)
(74 21)
(22 48)
(21 22)
(23 4)
(6 23)
(23 56)
(24 58)
(57 25)
(25 24)
(26 65)
(59 27)
(27 26)
(28 67)
(66 29)
(29 28)
(30 69)
(68 31)
(31 30)
(32 71)
(70 33)
(33 32)
(34 61)
(60 35)
(35 34)
(36 63)
(62 37)
(37 36)
(38 75)
(64 39)
(39 38)
(38 21)
(8 25)
(24 7)
(10 27)
(26 9)
(12 29)
(28 11)
(14 31)
(30 13)
(16 33)
(32 15)
(18 35)
(34 17)
(20 37)
(36 19)
(22 39)
(56 40)
(41 57)
(58 42)
(43 59)
(65 49)
(50 66)
(67 51)
(52 68)
(69 53)
(54 70)
(71 55)
(44 60)
(61 45)
(46 62)
(63 47)
(48 64)
)

// * * * * * * * * * * * * * * * * * * * * * * * * * * * * * * * * * * * * * //


// ************************************************************************* //
