/*--------------------------------*- C++ -*----------------------------------*\
| =========                 |                                                 |
| \\      /  F ield         | OpenFOAM: The Open Source CFD Toolbox           |
|  \\    /   O peration     | Version:  2512                                  |
|   \\  /    A nd           | Website:  www.openfoam.com                      |
|    \\/     M anipulation  |                                                 |
\*---------------------------------------------------------------------------*/
FoamFile
{
    version     2.0;
    format      ascii;
    arch        "LSB;label=32;scalar=64";
    class       volScalarField;
    location    "0/solid_2";
    object      T;
}
// * * * * * * * * * * * * * * * * * * * * * * * * * * * * * * * * * * * * * //

dimensions      [ 0 0 0 1 0 0 0 ];

internalField   uniform 293.15;

boundaryField
{
    s2_minY
    {
        type            zeroGradient;
        value           uniform 293.15;
    }
    s2_maxY
    {
        type            zeroGradient;
        value           uniform 293.15;
    }
    s2_maxX
    {
        type            zeroGradient;
        value           uniform 293.15;
    }
    defaultFaces
    {
        type            empty;
    }
    solid_2_to_fluid_2
    {
        type            compressible::turbulentTemperatureRadCoupledMixed;
        value           uniform 293.15;
        Tnbr            T;
        kappaMethod     fluidThermo;
        qrNbr           none;
        qr              none;
        thermalInertia  true;
        kappa           none;
    }
}


// ************************************************************************* //
