/*--------------------------------*- C++ -*----------------------------------*\
| =========                 |                                                 |
| \\      /  F ield         | OpenFOAM: The Open Source CFD Toolbox           |
|  \\    /   O peration     | Version:  2512                                  |
|   \\  /    A nd           | Website:  www.openfoam.com                      |
|    \\/     M anipulation  |                                                 |
\*---------------------------------------------------------------------------*/
FoamFile
{
    version     2.0;
    format      ascii;
    arch        "LSB;label=32;scalar=64";
    class       extendedFeatureEdgeMesh;
    location    "constant/extendedFeatureEdgeMesh";
    object      heatSink_m.extendedFeatureEdgeMesh;
}
// * * * * * * * * * * * * * * * * * * * * * * * * * * * * * * * * * * * * * //

// points

76
(
(0 0 0.004)
(0 0.04 0.004)
(0.042 0 0.004)
(0 0 0.023)
(0 0.04 0.023)
(0.042 0.04 0.004)
(0.002 0 0.023)
(0.007 0 0.023)
(0.005 0 0.023)
(0.012 0 0.023)
(0.01 0 0.023)
(0.017 0 0.023)
(0.015 0 0.023)
(0.022 0 0.023)
(0.02 0 0.023)
(0.027 0 0.023)
(0.025 0 0.023)
(0.032 0 0.023)
(0.03 0 0.023)
(0.037 0 0.023)
(0.035 0 0.023)
(0.042 0 0.023)
(0.04 0 0.023)
(0.002 0.04 0.023)
(0.007 0.04 0.023)
(0.005 0.04 0.023)
(0.012 0.04 0.023)
(0.01 0.04 0.023)
(0.017 0.04 0.023)
(0.015 0.04 0.023)
(0.022 0.04 0.023)
(0.02 0.04 0.023)
(0.027 0.04 0.023)
(0.025 0.04 0.023)
(0.032 0.04 0.023)
(0.03 0.04 0.023)
(0.037 0.04 0.023)
(0.035 0.04 0.023)
(0.042 0.04 0.023)
(0.04 0.04 0.023)
(0.002 0 0.006)
(0.005 0 0.006)
(0.007 0 0.006)
(0.01 0 0.006)
(0.03 0 0.006)
(0.032 0 0.006)
(0.035 0 0.006)
(0.037 0 0.006)
(0.04 0 0.006)
(0.012 0 0.006)
(0.015 0 0.006)
(0.017 0 0.006)
(0.02 0 0.006)
(0.022 0 0.006)
(0.025 0 0.006)
(0.027 0 0.006)
(0.002 0.04 0.006)
(0.005 0.04 0.006)
(0.007 0.04 0.006)
(0.01 0.04 0.006)
(0.03 0.04 0.006)
(0.032 0.04 0.006)
(0.035 0.04 0.006)
(0.037 0.04 0.006)
(0.04 0.04 0.006)
(0.012 0.04 0.006)
(0.015 0.04 0.006)
(0.017 0.04 0.006)
(0.02 0.04 0.006)
(0.022 0.04 0.006)
(0.025 0.04 0.006)
(0.027 0.04 0.006)
(0 0 0.006)
(0 0.04 0.006)
(0.042 0 0.006)
(0.042 0.04 0.006)
)

// edges

112
(
(0 72)
(1 0)
(73 1)
(41 40)
(43 42)
(46 45)
(48 47)
(2 74)
(0 2)
(50 49)
(52 51)
(54 53)
(44 55)
(72 3)
(3 4)
(4 73)
(56 57)
(58 59)
(61 62)
(63 64)
(75 5)
(5 1)
(65 66)
(67 68)
(69 70)
(71 60)
(5 2)
(40 6)
(6 3)
(42 7)
(8 41)
(7 8)
(49 9)
(10 43)
(9 10)
(51 11)
(12 50)
(11 12)
(53 13)
(14 52)
(13 14)
(55 15)
(16 54)
(15 16)
(45 17)
(18 44)
(17 18)
(47 19)
(20 46)
(19 20)
(74 21)
(22 48)
(21 22)
(23 4)
(6 23)
(23 56)
(24 58)
(57 25)
(25 24)
(26 65)
(59 27)
(27 26)
(28 67)
(66 29)
(29 28)
(30 69)
(68 31)
(31 30)
(32 71)
(70 33)
(33 32)
(34 61)
(60 35)
(35 34)
(36 63)
(62 37)
(37 36)
(38 75)
(64 39)
(39 38)
(38 21)
(8 25)
(24 7)
(10 27)
(26 9)
(12 29)
(28 11)
(14 31)
(30 13)
(16 33)
(32 15)
(18 35)
(34 17)
(20 37)
(36 19)
(22 39)
(56 40)
(41 57)
(58 42)
(43 59)
(65 49)
(50 66)
(67 51)
(52 68)
(69 53)
(54 70)
(71 55)
(44 60)
(61 45)
(46 62)
(63 47)
(48 64)
)

// concaveStart mixedStart nonFeatureStart
40 40 72
// internalStart flatStart openStart multipleStart
96 112 112 112
// normals

134
(
(-1 0 0)
(0 -1 0)
(0 0 -1)
(-1 0 0)
(0 1 0)
(0 -1 0)
(0 0 1)
(0 -1 0)
(0 0 1)
(0 -1 0)
(0 0 1)
(0 -1 0)
(0 0 1)
(0 -1 0)
(1 0 0)
(0 -1 0)
(0 0 -1)
(0 -1 0)
(0 0 1)
(0 -1 0)
(0 0 1)
(0 -1 0)
(0 0 1)
(0 -1 0)
(0 0 1)
(-1 0 0)
(0 -1 0)
(-1 0 0)
(0 0 1)
(0 1 0)
(0 1 0)
(0 0 1)
(0 1 0)
(0 0 1)
(0 1 0)
(0 0 1)
(0 1 0)
(0 0 1)
(0 1 0)
(1 -0 0)
(0 1 0)
(0 1 0)
(0 0 1)
(0 1 0)
(0 0 1)
(0 1 0)
(0 0 1)
(0 1 0)
(0 0 1)
(0 -1 0)
(1 0 0)
(0 0 1)
(0 -1 0)
(1 0 0)
(0 -1 0)
(-1 0 0)
(0 0 1)
(0 -1 0)
(1 0 0)
(0 -1 0)
(-1 0 0)
(0 0 1)
(0 -1 0)
(1 0 0)
(0 -1 0)
(-1 0 0)
(0 0 1)
(0 -1 0)
(1 0 0)
(0 -1 0)
(-1 0 0)
(0 0 1)
(0 -1 0)
(1 0 0)
(0 -1 0)
(-1 0 0)
(0 0 1)
(0 -1 0)
(1 0 0)
(0 -1 0)
(-1 0 0)
(0 0 1)
(0 -1 0)
(1 0 0)
(0 -1 0)
(-1 0 0)
(0 0 1)
(0 -1 0)
(1 0 0)
(0 -1 0)
(-1 0 0)
(0 0 1)
(1 -0 0)
(0 1 0)
(0 1 0)
(1 -0 0)
(0 1 0)
(-1 0 0)
(0 0 1)
(0 1 0)
(1 -0 0)
(0 1 0)
(-1 0 0)
(0 0 1)
(0 1 0)
(1 -0 0)
(0 1 0)
(-1 0 0)
(0 0 1)
(0 1 0)
(1 -0 0)
(0 1 0)
(-1 0 0)
(0 0 1)
(0 1 0)
(1 -0 0)
(0 1 0)
(-1 0 0)
(0 0 1)
(0 1 0)
(1 -0 0)
(0 1 0)
(-1 0 0)
(0 0 1)
(0 1 0)
(1 -0 0)
(0 1 0)
(-1 0 0)
(0 0 1)
(0 1 0)
(1 -0 0)
(0 1 0)
(-1 0 0)
(0 0 1)
)

// normal volume types

134
(
0
0
0
0
0
0
0
0
0
0
0
0
0
0
0
0
0
0
0
0
0
0
0
0
0
0
0
0
0
0
0
0
0
0
0
0
0
0
0
0
0
0
0
0
0
0
0
0
0
0
0
0
0
0
0
0
0
0
0
0
0
0
0
0
0
0
0
0
0
0
0
0
0
0
0
0
0
0
0
0
0
0
0
0
0
0
0
0
0
0
0
0
0
0
0
0
0
0
0
0
0
0
0
0
0
0
0
0
0
0
0
0
0
0
0
0
0
0
0
0
0
0
0
0
0
0
0
0
0
0
0
0
0
0
)

// normalDirections

112
(
2(1 -1)
2(1 -1)
2(1 -1)
2(1 -1)
2(1 -1)
2(1 -1)
2(1 -1)
2(1 -1)
2(1 -1)
2(1 -1)
2(1 -1)
2(1 -1)
2(1 -1)
2(1 -1)
2(1 -1)
2(1 -1)
2(1 -1)
2(1 -1)
2(1 -1)
2(1 -1)
2(1 -1)
2(1 -1)
2(1 -1)
2(1 -1)
2(1 -1)
2(1 -1)
2(1 -1)
2(1 -1)
2(1 -1)
2(1 -1)
2(1 -1)
2(1 -1)
2(1 -1)
2(1 -1)
2(1 -1)
2(1 -1)
2(1 -1)
2(1 -1)
2(1 -1)
2(1 -1)
2(1 -1)
2(1 -1)
2(1 -1)
2(1 -1)
2(1 -1)
2(1 -1)
2(1 -1)
2(1 -1)
2(1 -1)
2(1 -1)
2(1 -1)
2(1 -1)
2(1 -1)
2(1 -1)
2(1 -1)
2(1 -1)
2(1 -1)
2(1 -1)
2(1 -1)
2(1 -1)
2(1 -1)
2(1 -1)
2(1 -1)
2(1 -1)
2(1 -1)
2(1 -1)
2(1 -1)
2(1 -1)
2(1 -1)
2(1 -1)
2(1 -1)
2(1 -1)
2(1 -1)
2(1 -1)
2(1 -1)
2(1 -1)
2(1 -1)
2(1 -1)
2(1 -1)
2(1 -1)
2(1 -1)
2(1 -1)
2(1 -1)
2(1 -1)
2(1 -1)
2(1 -1)
2(1 -1)
2(1 -1)
2(1 -1)
2(1 -1)
2(1 -1)
2(1 -1)
2(1 -1)
2(1 -1)
2(1 -1)
2(1 -1)
2(1 -1)
2(1 -1)
2(1 -1)
2(1 -1)
2(1 -1)
2(1 -1)
2(1 -1)
2(1 -1)
2(1 -1)
2(1 -1)
2(1 -1)
2(1 -1)
2(1 -1)
2(1 -1)
2(1 -1)
2(1 -1)
)

// edgeNormals

112
(
2(0 1)
2(0 2)
2(3 4)
2(5 6)
2(7 8)
2(9 10)
2(11 12)
2(13 14)
2(15 16)
2(17 18)
2(19 20)
2(21 22)
2(23 24)
2(25 26)
2(27 28)
2(27 29)
2(30 31)
2(32 33)
2(34 35)
2(36 37)
2(38 39)
2(40 2)
2(41 42)
2(43 44)
2(45 46)
2(47 48)
2(16 14)
2(49 50)
2(26 51)
2(52 53)
2(54 55)
2(54 56)
2(57 58)
2(59 60)
2(59 61)
2(62 63)
2(64 65)
2(64 66)
2(67 68)
2(69 70)
2(69 71)
2(72 73)
2(74 75)
2(74 76)
2(77 78)
2(79 80)
2(79 81)
2(82 83)
2(84 85)
2(84 86)
2(87 88)
2(89 90)
2(89 91)
2(28 29)
2(51 92)
2(93 92)
2(94 95)
2(96 97)
2(96 98)
2(99 100)
2(101 102)
2(101 103)
2(104 105)
2(106 107)
2(106 108)
2(109 110)
2(111 112)
2(111 113)
2(114 115)
2(116 117)
2(116 118)
2(119 120)
2(121 122)
2(121 123)
2(124 125)
2(126 127)
2(126 128)
2(129 130)
2(131 132)
2(131 133)
2(130 91)
2(97 98)
2(95 56)
2(102 103)
2(100 61)
2(107 108)
2(105 66)
2(112 113)
2(110 71)
2(117 118)
2(115 76)
2(122 123)
2(120 81)
2(127 128)
2(125 86)
2(132 133)
2(31 50)
2(6 55)
2(33 53)
2(8 60)
2(42 58)
2(18 65)
2(20 63)
2(44 70)
2(22 68)
2(46 75)
2(24 73)
2(48 80)
2(10 78)
2(35 85)
2(12 83)
2(37 90)
)

// featurePointNormals

72
(
3(0 1 2)
3(0 2 4)
3(13 14 16)
3(25 26 28)
3(27 28 29)
3(38 39 2)
3(49 50 51)
3(52 53 56)
3(54 55 56)
3(57 58 61)
3(59 60 61)
3(62 63 66)
3(64 65 66)
3(67 68 71)
3(69 70 71)
3(72 73 76)
3(74 75 76)
3(77 78 81)
3(79 80 81)
3(82 83 86)
3(84 85 86)
3(87 88 91)
3(89 90 91)
3(28 29 92)
3(94 95 98)
3(96 97 98)
3(99 100 103)
3(101 102 103)
3(104 105 108)
3(106 107 108)
3(109 110 113)
3(111 112 113)
3(114 115 118)
3(116 117 118)
3(119 120 123)
3(121 122 123)
3(124 125 128)
3(126 127 128)
3(129 130 133)
3(131 132 133)
3(5 6 50)
3(5 6 55)
3(7 8 53)
3(7 8 60)
3(23 24 80)
3(9 10 78)
3(9 10 85)
3(11 12 83)
3(11 12 90)
3(17 18 58)
3(17 18 65)
3(19 20 63)
3(19 20 70)
3(21 22 68)
3(21 22 75)
3(23 24 73)
3(30 31 92)
3(30 31 97)
3(32 33 95)
3(32 33 102)
3(47 48 122)
3(34 35 120)
3(34 35 127)
3(36 37 125)
3(36 37 132)
3(41 42 100)
3(41 42 107)
3(43 44 105)
3(43 44 112)
3(45 46 110)
3(45 46 117)
3(47 48 115)
)

// featurePointEdges

72
(
3(0 8 1)
3(2 21 1)
3(7 26 8)
3(14 28 13)
3(14 53 15)
3(20 26 21)
3(28 54 27)
3(31 82 29)
3(30 81 31)
3(34 84 32)
3(33 83 34)
3(37 86 35)
3(36 85 37)
3(40 88 38)
3(39 87 40)
3(43 90 41)
3(42 89 43)
3(46 92 44)
3(45 91 46)
3(49 94 47)
3(48 93 49)
3(52 80 50)
3(51 95 52)
3(54 55 53)
3(58 82 56)
3(57 81 58)
3(61 84 59)
3(60 83 61)
3(64 86 62)
3(63 85 64)
3(67 88 65)
3(66 87 67)
3(70 90 68)
3(69 89 70)
3(73 92 71)
3(72 91 73)
3(76 94 74)
3(75 93 76)
3(79 80 77)
3(78 95 79)
3(3 96 27)
3(30 97 3)
3(4 98 29)
3(33 99 4)
3(12 107 45)
3(5 108 44)
3(48 109 5)
3(6 110 47)
3(51 111 6)
3(9 100 32)
3(36 101 9)
3(10 102 35)
3(39 103 10)
3(11 104 38)
3(42 105 11)
3(12 106 41)
3(16 96 55)
3(57 97 16)
3(17 98 56)
3(60 99 17)
3(25 107 72)
3(18 108 71)
3(75 109 18)
3(19 110 74)
3(78 111 19)
3(22 100 59)
3(63 101 22)
3(23 102 62)
3(66 103 23)
3(24 104 65)
3(69 105 24)
3(25 106 68)
)

// regionEdges
0()


// ************************************************************************* //
