/*--------------------------------*- C++ -*----------------------------------*\
| =========                 |                                                 |
| \\      /  F ield         | OpenFOAM: The Open Source CFD Toolbox           |
|  \\    /   O peration     | Version:  2512                                  |
|   \\  /    A nd           | Website:  www.openfoam.com                      |
|    \\/     M anipulation  |                                                 |
\*---------------------------------------------------------------------------*/
FoamFile
{
    version     2.0;
    format      ascii;
    arch        "LSB;label=32;scalar=64";
    class       volScalarField;
    location    "0/air";
    object      epsilon;
}
// * * * * * * * * * * * * * * * * * * * * * * * * * * * * * * * * * * * * * //

dimensions      [ 0 2 -3 0 0 0 0 ];

internalField   uniform 0.01;

boundaryField
{
    XMin
    {
        type            epsilonWallFunction;
        value           $internalField;
    }
    XMax
    {
        type            epsilonWallFunction;
        value           $internalField;
    }
    YMin
    {
        type            inletOutlet;
        value           uniform 0.01;
        inletValue      uniform 0.01;
    }
    YMax
    {
        type            turbulentMixingLengthDissipationRateInlet;
        value           uniform 1;
        mixingLength    0.01;
    }
    ZMax
    {
        type            epsilonWallFunction;
        value           $internalField;
    }
    air_to_basis
    {
        type            epsilonWallFunction;
        value           $internalField;
    }
    air_to_heatSink
    {
        type            epsilonWallFunction;
        value           $internalField;
    }
    air_to_heatSource
    {
        type            epsilonWallFunction;
        value           $internalField;
    }
    defaultFaces
    {
        type            empty;
    }
}


// ************************************************************************* //
