/*--------------------------------*- C++ -*----------------------------------*\
| =========                 |                                                 |
| \\      /  F ield         | OpenFOAM: The Open Source CFD Toolbox           |
|  \\    /   O peration     | Version:  2512                                  |
|   \\  /    A nd           | Website:  www.openfoam.com                      |
|    \\/     M anipulation  |                                                 |
\*---------------------------------------------------------------------------*/
FoamFile
{
    version     2.0;
    format      ascii;
    arch        "LSB;label=32;scalar=64";
    class       polyBoundaryMesh;
    location    "constant/fluid_2/polyMesh";
    object      boundary;
}
// * * * * * * * * * * * * * * * * * * * * * * * * * * * * * * * * * * * * * //

5
(
    f2_minY
    {
        type            wall;
        inGroups        1(wall);
        nFaces          20;
        startFace       2320;
    }
    f2_maxY
    {
        type            wall;
        inGroups        1(wall);
        nFaces          20;
        startFace       2340;
    }
    defaultFaces
    {
        type            empty;
        inGroups        1(empty);
        nFaces          2400;
        startFace       2360;
    }
    fluid_2_to_solid_2
    {
        type            mappedWall;
        inGroups        1(wall);
        nFaces          60;
        startFace       4760;
        sampleMode      nearestPatchFace;
        sampleRegion    solid_2;
        samplePatch     solid_2_to_fluid_2;
    }
    fluid_2_to_solid_1
    {
        type            mappedWall;
        inGroups        1(wall);
        nFaces          60;
        startFace       4820;
        sampleMode      nearestPatchFace;
        sampleRegion    solid_1;
        samplePatch     solid_1_to_fluid_2;
    }
)

// ************************************************************************* //
