/*--------------------------------*- C++ -*----------------------------------*\
| =========                 |                                                 |
| \\      /  F ield         | OpenFOAM: The Open Source CFD Toolbox           |
|  \\    /   O peration     | Version:  v2506                                 |
|   \\  /    A nd           | Website:  www.openfoam.com                      |
|    \\/     M anipulation  |                                                 |
\*---------------------------------------------------------------------------*/
FoamFile
{
    version     2.0;
    format      ascii;
    class       dictionary;
    object      blockMeshDict;
}
// * * * * * * * * * * * * * * * * * * * * * * * * * * * * * * * * * * * * * //

scale   1;

vertices
(
    (0    0   0)    //0
    (0.1  0   0)    //1
    (0.11 0   0)    //2
    (0.21 0   0)    //3
    (0.22 0   0)    //4
    (0.22 0.3 0)    //5
    (0.21 0.3 0)    //6
    (0.11 0.3 0)    //7
    (0.1  0.3 0)    //8
    (0    0.3 0)    //9
    (0    0   0.01) //10
    (0.1  0   0.01) //11
    (0.11 0   0.01) //12
    (0.21 0   0.01) //13
    (0.22 0   0.01)    //14
    (0.22 0.3 0.01)    //15
    (0.21 0.3 0.01)    //16
    (0.11 0.3 0.01)    //17
    (0.1  0.3 0.01)    //18
    (0    0.3 0.01)    //19
);

blocks
(
    hex (0 1 8 9 10 11 18 19)  fluid_1 (20 60 1) simpleGrading (1 1 1)
    hex (1 2 7 8 11 12 17 18)  solid_1 (10 60 1) simpleGrading (1 1 1)
    hex (2 3 6 7 12 13 16 17)  fluid_2 (20 60 1) simpleGrading (1 1 1)
    hex (3 4 5 6 13 14 15 16) solid_2 (10 60 1) simpleGrading (1 1 1)
);

edges
(
);

boundary
(
    f1_minX
    {
        type wall;
        faces
        (
            (0 9 19 10)
        );
    }
    f1_minY
    {
        type wall;
        faces
        (
            (1 0 10 11)
        );
    }
    s1_minY
    {
        type wall;
        faces
        (
            (2 1 11 12 )
        );
    }
    f2_minY
    {
        type wall;
        faces
        (
            (3 2 12 13)
        );
    }
    s2_minY
    {
        type wall;
        faces
        (
            (4 3 13 14)
        );
    }
    s2_maxY
    {
        type wall;
        faces
        (
            (6 5 15 16)
        );
    }
    s2_maxX
    {
        type wall;
        faces
        (
            (4 5 15 14)
        );
    }
    f2_maxY
    {
        type wall;
        faces
        (
            (7 6 16 17)
        );
    }
    s1_maxY
    {
        type wall;
        faces
        (
            (8 7 17 18)
        );
    }
    f1_maxY
    {
        type wall;
        faces
        (
            (9 8 18 19)
        );
    }
);

mergePatchPairs
(
);

// ************************************************************************* //
