/*--------------------------------*- C++ -*----------------------------------*\
| =========                 |                                                 |
| \\      /  F ield         | OpenFOAM: The Open Source CFD Toolbox           |
|  \\    /   O peration     | Version:  2512                                  |
|   \\  /    A nd           | Website:  www.openfoam.com                      |
|    \\/     M anipulation  |                                                 |
\*---------------------------------------------------------------------------*/
FoamFile
{
    version     2.0;
    format      ascii;
    arch        "LSB;label=32;scalar=64";
    class       polyBoundaryMesh;
    location    "constant/polyMesh";
    object      boundary;
}
// * * * * * * * * * * * * * * * * * * * * * * * * * * * * * * * * * * * * * //

6
(
    XMin
    {
        type            patch;
        nFaces          460;
        startFace       164570;
    }
    XMax
    {
        type            patch;
        nFaces          460;
        startFace       165030;
    }
    YMin
    {
        type            patch;
        nFaces          345;
        startFace       165490;
    }
    YMax
    {
        type            patch;
        nFaces          345;
        startFace       165835;
    }
    ZMin
    {
        type            wall;
        inGroups        1(wall);
        nFaces          9756;
        startFace       166180;
    }
    ZMax
    {
        type            patch;
        nFaces          300;
        startFace       175936;
    }
)

// ************************************************************************* //
